-------------------------------------------------------
          Amber 14 SANDER                              2014
          -------------------------------------------------------

  [-O]verwriting output

File Assignments:

 Here is the input file:

TRPCage MD in GB solvent 500ps
 &cntrl
  imin=0, irest=1, ntx=5,
  nstlim=250000, dt=0.002,
  ntc=2, ntf=2,
  ntt=1, tautp=0.5,
  tempi=325.0, temp0=325.0,
  ntpr=1000, ntwx=1000,ntwr=50000,
  ntb=0, igb=1,
  cut=9999.,rgbmax=9999.
 /

--------------------------------------------------------------------------------
   1.  RESOURCE   USE:
--------------------------------------------------------------------------------

 NATOM  =     304 NTYPES =      12 NBONH =     150 MBONA  =     160
 NTHETH =     346 MTHETA =     219 NPHIH =     653 MPHIA  =     403
 NHPARM =       0 NPARM  =       0 NNB   =    1701 NRES   =      20
 NBONA  =     160 NTHETA =     219 NPHIA =     403 NUMBND =      32
 NUMANG =      70 NPTRA  =      34 NATYP =      21 NPHB   =       0
 IFBOX  =       0 NMXRS  =      24 IFCAP =       0 NEXTRA =       0
 NCOPY  =       0

--------------------------------------------------------------------------------
   2.  CONTROL  DATA  FOR  THE  RUN
--------------------------------------------------------------------------------

NASN

General flags:
     imin    =       0, nmropt  =       0

Nature and format of input:
     ntx     =       5, irest   =       1, ntrx    =       1

Nature and format of output:
     ntxo    =       1, ntpr    =    1000, ntrx    =       1, ntwr    =   50000
     iwrap   =       0, ntwx    =    1000, ntwv    =       0, ntwe    =       0
     ioutfm  =       0, ntwprt  =       0, idecomp =       0, rbornstat=      0

Potential function:
     ntf     =       2, ntb     =       0, igb     =       1, nsnb    =      25
     ipol    =       0, gbsa    =       0, iesp    =       0
     dielc   =   1.00000, cut     =9999.00000, intdiel =   1.00000
     saltcon =   0.00000, offset  =   0.09000, gbalpha=    1.00000
     gbbeta  =   0.00000, gbgamma =   0.00000, surften =   0.00500
     rdt     =   0.00000, rgbmax  =9999.00000  extdiel =  78.50000
     alpb  =        0

Frozen or restrained atoms:
     ibelly  =       0, ntr     =       0

Molecular dynamics:
     nstlim  =    250000, nscm    =      1000, nrespa  =         1
     t       =   0.00000, dt      =   0.00200, vlimit  =  -1.00000

Berendsen (weak-coupling) temperature regulation:
     temp0   = 325.00000, tempi   = 325.00000, tautp   =   0.50000

SHAKE:
     ntc     =       2, jfastw  =       0
     tol     =   0.00001

--------------------------------------------------------------------------------
   3.  ATOMIC COORDINATES AND VELOCITIES
--------------------------------------------------------------------------------

NASN
 begin time read from input coords =    50.000 ps

 Number of triangulated 3-point waters found:        0

--------------------------------------------------------------------------------
   4.  RESULTS
 NSTEP =     1000   TIME(PS) =      52.000  TEMP(K) =   323.45  PRESS =     0.0
 Etot   =      -216.4557  EKtot   =       242.9600  EPtot      =      -459.4157
 BOND   =        54.3546  ANGLE   =       161.2115  DIHED      =       157.1992
 1-4 NB =        63.8861  1-4 EEL =       889.2903  VDWAALS    =       -72.6362
 EELEC  =     -1281.0925  EGB     =      -431.6287  RESTRAINT  =         0.0000
 ------------------------------------------------------------------------------

      A V E R A G E S   O V E R     250 S T E P S

 NSTEP =   250000   TIME(PS) =     550.000  TEMP(K) =   322.62  PRESS =     0.0
 Etot   =      -233.9987  EKtot   =       242.3372  EPtot      =      -476.3359
 BOND   =        66.9338  ANGLE   =       167.2883  DIHED      =       153.9561
 1-4 NB =        62.1421  1-4 EEL =       891.7123  VDWAALS    =       -88.0947
 EELEC  =     -1361.4820  EGB     =      -368.7919  RESTRAINT  =         0.0000
 ------------------------------------------------------------------------------

      R M S  F L U C T U A T I O N S

 NSTEP =   250000   TIME(PS) =     550.000  TEMP(K) =    11.03  PRESS =     0.0
 Etot   =         7.2909  EKtot   =         8.2886  EPtot      =        11.3018
 BOND   =         6.8122  ANGLE   =         8.6860  DIHED      =         6.4150
 1-4 NB =         3.2793  1-4 EEL =        12.2918  VDWAALS    =         9.3355
 EELEC  =        35.2127  EGB     =        30.2935  RESTRAINT  =         0.0000
 ------------------------------------------------------------------------------
