-------------------------------------------------------
          Amber 14 SANDER                              2014
          -------------------------------------------------------

  [-O]verwriting output

File Assignments:

 Here is the input file:

 Typical Production MD NVE with
 GOOD energy conservation.
 &cntrl
   ntx=5, irest=1,
   ntc=2, ntf=2, tol=0.000001,
   nstlim=25000,
   ntpr=1000, ntwx=1000,
   ntwr=10000,
   dt=0.002, cut=8.,
   ntt=0, ntb=1, ntp=0,
   ioutfm=1,
 /
 &ewald
  dsum_tol=0.000001,
 /

--------------------------------------------------------------------------------
   1.  RESOURCE   USE:
--------------------------------------------------------------------------------

 getting new box info from bottom of inpcrd
 NATOM  =   23558 NTYPES =      16 NBONH =   22290 MBONA  =    1302
 NTHETH =    2789 MTHETA =    1772 NPHIH =    5026 MPHIA  =    3140
 NHPARM =       0 NPARM  =       0 NNB   =   41859 NRES   =    7182
 NBONA  =    1302 NTHETA =    1772 NPHIA =    3140 NUMBND =      45
 NUMANG =      91 NPTRA  =      33 NATYP =      31 NPHB   =       1
 IFBOX  =       1 NMXRS  =      25 IFCAP =       0 NEXTRA =       0
 NCOPY  =       0

     BOX TYPE: RECTILINEAR

--------------------------------------------------------------------------------
   2.  CONTROL  DATA  FOR  THE  RUN
--------------------------------------------------------------------------------

General flags:
     imin    =       0, nmropt  =       0

Nature and format of input:
     ntx     =       5, irest   =       1, ntrx    =       1

Nature and format of output:
     ntxo    =       1, ntpr    =    1000, ntrx    =       1, ntwr    =   10000
     iwrap   =       0, ntwx    =    1000, ntwv    =       0, ntwe    =       0
     ioutfm  =       1, ntwprt  =       0, idecomp =       0, rbornstat=      0

Potential function:
     ntf     =       2, ntb     =       1, igb     =       0, nsnb    =      25
     ipol    =       0, gbsa    =       0, iesp    =       0
     dielc   =   1.00000, cut     =   8.00000, intdiel =   1.00000

Frozen or restrained atoms:
     ibelly  =       0, ntr     =       0

Molecular dynamics:
     nstlim  =     25000, nscm    =      1000, nrespa  =         1
     t       =   0.00000, dt      =   0.00200, vlimit  =  -1.00000

SHAKE:
     ntc     =       2, jfastw  =       0
     tol     =   0.00000

Ewald parameters:
     verbose =       0, ew_type =       0, nbflag  =       1, use_pme =       1
     vdwmeth =       1, eedmeth =       1, netfrc  =       1
     Box X =   62.230   Box Y =   62.230   Box Z =   62.230
     Alpha =   90.000   Beta  =   90.000   Gamma =   90.000
     NFFT1 =   64       NFFT2 =   64       NFFT3 =   64
     Cutoff=    8.000   Tol   =0.100E-05
     Ewald Coefficient =  0.39467
     Interpolation order =    4

--------------------------------------------------------------------------------
   3.  ATOMIC COORDINATES AND VELOCITIES
--------------------------------------------------------------------------------

 begin time read from input coords =     6.000 ps

 Number of triangulated 3-point waters found:     7023

     Sum of charges from parm topology file = -11.00000006
     Assuming uniform neutralizing plasma

--------------------------------------------------------------------------------
   4.  RESULTS
 NSTEP =     1000   TIME(PS) =       8.000  TEMP(K) =   295.92  PRESS =     0.0
 Etot   =    -58140.9954  EKtot   =     14225.2363  EPtot      =    -72366.2317
 BOND   =       421.9343  ANGLE   =      1158.4170  DIHED      =       979.9778
 1-4 NB =       558.5952  1-4 EEL =      6626.5213  VDWAALS    =      8334.2917
 EELEC  =    -90445.9690  EHBOND  =         0.0000  RESTRAINT  =         0.0000
 ------------------------------------------------------------------------------

      A V E R A G E S   O V E R      25 S T E P S

 NSTEP =    25000   TIME(PS) =      56.000  TEMP(K) =   296.28  PRESS =     0.0
 Etot   =    -58141.0946  EKtot   =     14242.3832  EPtot      =    -72383.4779
 BOND   =       462.8261  ANGLE   =      1250.0971  DIHED      =       984.8488
 1-4 NB =       549.8078  1-4 EEL =      6600.6209  VDWAALS    =      8332.3609
 EELEC  =    -90564.0395  EHBOND  =         0.0000  RESTRAINT  =         0.0000
 ------------------------------------------------------------------------------

      R M S  F L U C T U A T I O N S

 NSTEP =    25000   TIME(PS) =      56.000  TEMP(K) =     1.56  PRESS =     0.0
 Etot   =         1.5977  EKtot   =        75.1352  EPtot      =        76.3457
 BOND   =        18.1300  ANGLE   =        33.6252  DIHED      =        16.6999
 1-4 NB =        11.9563  1-4 EEL =        29.9921  VDWAALS    =       122.2573
 EELEC  =       157.7827  EHBOND  =         0.0000  RESTRAINT  =         0.0000
 ------------------------------------------------------------------------------
